#
! UKS wB97X-D3 RIJCOSX def2-SVP def2/J Normalprint SlowConv TightSCF TightOpt Numfreq Grid4 Nofinalgrid

%pal nprocs 12
end

%basis NewGTO 27 "def2-TZVP(-f)" end
	   NewGTO 15 "def2-TZVP(-f)" end
	   NewGTO 7 "def2-TZVP(-f)" end
	   NewGTO 5 "def2-TZVP(-f)" end
       NewAuxGTO 27 "def2/J" end
	   NewAuxGTO 15 "def2/J" end
	   NewAuxGTO 7 "def2/J" end
	   NewAuxGTO 5 "def2/J" end
      end

%SCF MaxIter 50000
     TolE 1e-7
     TolErr 1e-6
    end

%geom MaxIter 150
	end

%FREQ RESTART TRUE
CENTRALDIFF TRUE
INCREMENT 0.01
END

* xyz 0 2
C84         0.0000000000      0.0000000000      2.0650500000 NewGTO "def2-TZVP(-f)" end NewAuxGTO "def2/J" end
C85        -1.1919100000     -0.0147300000      2.7853100000
C86         1.1790700000     -0.0007800000      2.8393400000
C87        -1.2701100000     -0.2494500000      4.1303700000
C88         1.1146000000     -0.0987200000      4.2497200000
C89        -0.1186600000     -0.3013300000      4.8792800000
H90         2.1383400000      0.0685800000      2.3571500000
H93        -2.1204700000      0.1157200000      2.3689000000
C        2.3950440000     -0.0546040000      5.0472100000
H        3.2611800000      0.1057110000      4.3908790000
H        2.5553310000     -0.9933940000      5.5997270000
H        2.3760970000      0.7523060000      5.7931150000
C       -0.3040310000     -0.3455310000      6.3801460000
O        0.2421910000      0.6697130000      7.0866270000
O       -0.9497930000     -1.1812320000      6.9448760000
C        0.6548560000      1.8999850000      6.5015750000
H        0.5710570000      2.6581930000      7.2871520000
H        0.0047540000      2.2058210000      5.6649300000
H        1.6917900000      1.8565640000      6.1422620000
B       -2.7231910000     -0.3752300000      4.6981040000
O       -3.7984520000     -0.3323610000      3.8473010000
O       -3.0976730000     -0.5247620000      6.0037510000
C       -4.9844920000     -0.3642870000      4.6141800000
C       -4.5122350000     -0.6650370000      6.0510370000
H       -5.6632430000     -1.1320970000      4.2147390000
H       -5.5004070000      0.6061370000      4.5272130000
H       -4.9311090000      0.0371020000      6.7850530000
H       -4.7750760000     -1.6825340000      6.3799520000
*
