#
! UKS wB97X-D3 RIJCOSX def2-SVP def2/J Normalprint SlowConv TightSCF TightOpt Numfreq Grid4 Nofinalgrid

%pal nprocs 12
end

%basis NewGTO 27 "def2-TZVP(-f)" end
	   NewGTO 15 "def2-TZVP(-f)" end
	   NewGTO 7 "def2-TZVP(-f)" end
	   NewGTO 5 "def2-TZVP(-f)" end
       NewAuxGTO 27 "def2/J" end
	   NewAuxGTO 15 "def2/J" end
	   NewAuxGTO 7 "def2/J" end
	   NewAuxGTO 5 "def2/J" end
      end

%SCF MaxIter 50000
     TolE 1e-7
     TolErr 1e-6
    end

%geom MaxIter 150
	end

%FREQ RESTART TRUE
CENTRALDIFF TRUE
INCREMENT 0.01
END

* xyz 0 2
C84         0.0000000000      0.0000000000      2.0650500000 NewGTO "def2-TZVP(-f)" end NewAuxGTO "def2/J" end
C85        -1.1919100000     -0.0147300000      2.7853100000
C86         1.1790700000     -0.0007800000      2.8393400000
C87        -1.2701100000     -0.2494500000      4.1303700000
C88         1.1146000000     -0.0987200000      4.2497200000
C89        -0.1186600000     -0.3013300000      4.8792800000
H90         2.1383400000      0.0685800000      2.3571500000
H93        -2.1204700000      0.1157200000      2.3689000000
H91         2.0061000000     -0.0616400000      4.8591500000
C       -0.1322240000     -0.5641100000      6.3662620000
H       -1.1231170000     -0.8794500000      6.7193670000
H        0.1766360000      0.3312860000      6.9275440000
H        0.5816370000     -1.3600850000      6.6208840000
B       -2.7231910000     -0.3752300000      4.6981040000
O       -3.7984520000     -0.3323610000      3.8473010000
O       -3.0976730000     -0.5247620000      6.0037510000
C       -4.9844920000     -0.3642870000      4.6141800000
C       -4.5122350000     -0.6650370000      6.0510370000
H       -5.6632430000     -1.1320970000      4.2147390000
H       -5.5004070000      0.6061370000      4.5272130000
H       -4.9311090000      0.0371020000      6.7850530000
H       -4.7750760000     -1.6825340000      6.3799520000
*
